Circuit: * C:\users\fverstra\My Documents\Repository\CE1-6608-2017\TP\TL1\simul\A2.asc

Direct Newton iteration for .op point succeeded.

Date: Mon Mar 27 21:12:30 2017
Total elapsed time: 0.053 seconds.

tnom = 27
temp = 27
method = trap
totiter = 11
traniter = 0
tranpoints = 0
accept = 0
rejected = 0
matrix size = 38
fillins = 28
solver = Normal
Matrix Compiler1:     168 opcodes
Matrix Compiler2: 3.52 KB object code size

