Circuit: * C:\users\fverstra\My Documents\Repository\CE1-6608-2017\TP\TL1\simul\F1.asc

.OP point found by inspection.

Date: Sat Apr 08 21:24:17 2017
Total elapsed time: 0.053 seconds.

tnom = 27
temp = 27
method = modified trap
totiter = 1325
traniter = 1325
tranpoints = 637
accept = 629
rejected = 8
matrix size = 4
fillins = 0
solver = Normal
Matrix Compiler1: 118 bytes object code size  0.3/0.3/[0.2]
Matrix Compiler2: 242 bytes object code size  0.3/0.3/[0.2]


