Circuit: * C:\users\fverstra\My Documents\Repository\CE1-6608-2017\TP\TL1\simul\F2.asc

.OP point found by inspection.

Date: Sun Apr 09 00:58:36 2017
Total elapsed time: 0.048 seconds.

tnom = 27
temp = 27
method = modified trap
totiter = 881
traniter = 881
tranpoints = 352
accept = 262
rejected = 90
matrix size = 5
fillins = 0
solver = Normal
Matrix Compiler1: 150 bytes object code size  0.3/0.3/[0.3]
Matrix Compiler2: 321 bytes object code size  0.3/0.3/[0.3]


