Circuit: * C:\users\fverstra\My Documents\Repository\CE1-6608-2017\ejemplos_simulaciones\diodo2.asc

.OP point found by inspection.

Date: Sat Apr 08 19:19:08 2017
Total elapsed time: 0.162 seconds.

tnom = 27
temp = 27
method = modified trap
totiter = 1325
traniter = 1325
tranpoints = 637
accept = 629
rejected = 8
matrix size = 8
fillins = 0
solver = Normal
Matrix Compiler1: 228 bytes object code size  0.4/0.3/[0.3]
Matrix Compiler2: 486 bytes object code size  0.3/0.4/[0.3]


