Circuit: * C:\users\fverstra\My Documents\Repository\CE1-6608-2017\ejemplos_simulaciones\diodo1.asc

Direct Newton iteration for .op point succeeded.
.step f=50
.step f=50000

Date: Sat Apr 08 17:37:21 2017
Total elapsed time: 7.972 seconds.

tnom = 27
temp = 27
method = modified trap
totiter = 521890
traniter = 521881
tranpoints = 247588
accept = 233764
rejected = 13824
matrix size = 6
fillins = 0
solver = Normal
Matrix Compiler1: 218 bytes object code size  0.4/0.3/[0.3]
Matrix Compiler2: 374 bytes object code size  0.3/0.3/[0.3]


