Circuit: * Z:\home\ezequiel\Documents\FIUBA\CE1-6608-2017\TP\TL2\Citcuito1.asc

WARNING: Node N003 is floating.
WARNING: Node N006 is floating.

WARNING: Less than two connections to node N003.  This node is used by C1.
WARNING: Less than two connections to node N006.  This node is used by C5.
Direct Newton iteration for .op point succeeded.

Date: Mon Oct 30 21:00:00 2017
Total elapsed time: 2.240 seconds.

tnom = 27
temp = 27
method = modified trap
totiter = 372155
traniter = 372148
tranpoints = 160099
accept = 96167
rejected = 63932
matrix size = 32
fillins = 0
solver = Normal
Matrix Compiler1: 1.86 KB object code size  1.7/0.7/[0.6]
Matrix Compiler2: 2.51 KB object code size  0.7/0.9/[0.6]

