Circuit: * Z:\home\ezequiel\Documents\FIUBA\CE1-6608-2017\TP\TL2\Citcuito1.asc

Direct Newton iteration for .op point succeeded.

Date: Tue Nov 14 18:47:03 2017
Total elapsed time: 0.645 seconds.

tnom = 27
temp = 27
method = modified trap
totiter = 93928
traniter = 93921
tranpoints = 40004
accept = 24075
rejected = 15929
matrix size = 28
fillins = 0
solver = Normal
Matrix Compiler1: 1.63 KB object code size  1.4/0.6/[0.5]
Matrix Compiler2: 2.24 KB object code size  0.6/0.8/[0.5]

