Circuit: * Z:\home\ezequiel\Documents\FIUBA\CE1-6608-2017\TP\TL2\Citcuito1.asc

WARNING: Node N002 is floating.

WARNING: Less than two connections to node N002.  This node is used by C1.
Direct Newton iteration for .op point succeeded.
Changing Tseed to 1e-009

Date: Tue Nov 14 11:29:22 2017
Total elapsed time: 7.388 seconds.

tnom = 27
temp = 27
method = modified trap
totiter = 1144918
traniter = 1144911
tranpoints = 440002
accept = 264072
rejected = 175929
matrix size = 30
fillins = 2
solver = Normal
Matrix Compiler1: 1.86 KB object code size  1.8/1.1/[0.7]
Matrix Compiler2: 2.40 KB object code size  0.9/1.5/[0.7]

