Circuit: * Z:\home\ezequiel\Documents\FIUBA\CE1-6608-2017\TP\TL2\Citcuito1.asc

Direct Newton iteration for .op point succeeded.
Changing Tseed to 1e-009

Date: Tue Nov 14 16:44:12 2017
Total elapsed time: 0.595 seconds.

tnom = 27
temp = 27
method = modified trap
totiter = 91938
traniter = 91931
tranpoints = 40002
accept = 24072
rejected = 15929
matrix size = 30
fillins = 0
solver = Normal
Matrix Compiler1: 1.73 KB object code size  1.6/1.0/[0.7]
Matrix Compiler2: 2.39 KB object code size  0.7/1.3/[0.6]

